data_image0
_cell_length_a       41.2288
_cell_length_b       41.2348
_cell_length_c       8.9086
_cell_angle_alpha    90.001
_cell_angle_beta     90.0041
_cell_angle_gamma    90.1428

_symmetry_space_group_name_H-M    "P 1"
_symmetry_int_tables_number       1

loop_
  _symmetry_equiv_pos_as_xyz
  'x, y, z'

loop_
  _atom_site_label
  _atom_site_occupancy
  _atom_site_fract_x
  _atom_site_fract_y
  _atom_site_fract_z
  _atom_site_thermal_displace_type
  _atom_site_B_iso_or_equiv
  _atom_site_type_symbol
  _atom_site_charge
  O1       1.0000 0.22430  0.28095  0.09482  Biso   1.000  O  -0.3735371033761802
  O2       1.0000 0.28591  0.21783  0.15700  Biso   1.000  O  -0.3735371033761802
  O3       1.0000 0.22419  0.21798  0.09387  Biso   1.000  O  -0.3735371033761802
  O4       1.0000 0.28598  0.28114  0.15806  Biso   1.000  O  -0.3735371033761802
  O5       1.0000 0.27477  0.28081  0.40055  Biso   1.000  O  -0.3735371033761802
  O6       1.0000 0.21309  0.21757  0.33636  Biso   1.000  O  -0.3735371033761802
  O7       1.0000 0.27475  0.21786  0.39956  Biso   1.000  O  -0.3735371033761802
  O8       1.0000 0.21309  0.28090  0.33732  Biso   1.000  O  -0.3735371033761802
  Cu1      1.0000 0.25630  0.24949  0.10176  Biso   1.000  Cu  1.1259861127974136
  Cu2      1.0000 0.24271  0.24927  0.39260  Biso   1.000  Cu  1.1259861127974136
  C1       1.0000 0.20820  0.29165  0.20568  Biso   1.000  C  0.6635164453763639
  C2       1.0000 0.29085  0.20715  0.28872  Biso   1.000  C  0.6635164453763639
  C3       1.0000 0.20808  0.20700  0.20438  Biso   1.000  C  0.6792236953068550
  C4       1.0000 0.29090  0.29171  0.29005  Biso   1.000  C  0.6635164453763639
  O9       1.0000 0.71430  0.28228  0.16235  Biso   1.000  O  -0.3735371033761802
  O10      1.0000 0.77588  0.21925  0.09833  Biso   1.000  O  -0.3735371033761802
  O11      1.0000 0.71422  0.21898  0.16161  Biso   1.000  O  -0.3735371033761802
  O12      1.0000 0.77600  0.28219  0.09919  Biso   1.000  O  -0.3735371033761802
  O13      1.0000 0.78711  0.28236  0.34168  Biso   1.000  O  -0.3735371033761802
  O14      1.0000 0.72542  0.21901  0.40413  Biso   1.000  O  -0.3735371033761802
  O15      1.0000 0.78712  0.21901  0.34081  Biso   1.000  O  -0.3735371033761802
  O16      1.0000 0.72544  0.28198  0.40492  Biso   1.000  O  -0.3735371033761802
  Cu3      1.0000 0.74389  0.25069  0.10621  Biso   1.000  Cu  1.1259861127974136
  Cu4      1.0000 0.75749  0.25057  0.39706  Biso   1.000  Cu  1.1259861127974136
  C5       1.0000 0.70936  0.29282  0.29431  Biso   1.000  C  0.6635164453763639
  C6       1.0000 0.79200  0.20842  0.20887  Biso   1.000  C  0.6635164453763639
  C7       1.0000 0.70929  0.20825  0.29330  Biso   1.000  C  0.6635164453763639
  C8       1.0000 0.79212  0.29306  0.20993  Biso   1.000  C  0.6775710151048105
  O17      1.0000 0.78689  0.71901  0.66336  Biso   1.000  O  -0.3735371033761802
  O18      1.0000 0.72521  0.78196  0.59964  Biso   1.000  O  -0.3735371033761802
  O19      1.0000 0.78688  0.78234  0.66255  Biso   1.000  O  -0.3735371033761802
  O20      1.0000 0.72520  0.71901  0.60041  Biso   1.000  O  -0.3735371033761802
  O21      1.0000 0.71403  0.71897  0.84295  Biso   1.000  O  -0.3735371033761802
  O22      1.0000 0.77585  0.78220  0.90511  Biso   1.000  O  -0.3735371033761802
  O23      1.0000 0.71412  0.78228  0.84226  Biso   1.000  O  -0.3735371033761802
  O24      1.0000 0.77573  0.71923  0.90590  Biso   1.000  O  -0.3735371033761802
  Cu5      1.0000 0.75726  0.75056  0.60733  Biso   1.000  Cu  1.1259861127974136
  Cu6      1.0000 0.74373  0.75068  0.89824  Biso   1.000  Cu  1.1259861127974136
  C9       1.0000 0.79181  0.70841  0.79523  Biso   1.000  C  0.6635164453763639
  C10      1.0000 0.70914  0.79281  0.71029  Biso   1.000  C  0.6635164453763639
  C11      1.0000 0.79192  0.79306  0.79424  Biso   1.000  C  0.6792236953068550
  C12      1.0000 0.70909  0.70825  0.71126  Biso   1.000  C  0.6635164453763639
  O25      1.0000 0.27459  0.71785  0.59616  Biso   1.000  O  -0.3735371033761802
  O26      1.0000 0.21291  0.78092  0.65828  Biso   1.000  O  -0.3735371033761802
  O27      1.0000 0.27462  0.78082  0.59522  Biso   1.000  O  -0.3735371033761802
  O28      1.0000 0.21290  0.71757  0.65902  Biso   1.000  O  -0.3735371033761802
  O29      1.0000 0.22395  0.71801  0.90156  Biso   1.000  O  -0.3735371033761802
  O30      1.0000 0.28579  0.78111  0.83776  Biso   1.000  O  -0.3735371033761802
  O31      1.0000 0.22411  0.78096  0.90080  Biso   1.000  O  -0.3735371033761802
  O32      1.0000 0.28566  0.71780  0.83879  Biso   1.000  O  -0.3735371033761802
  Cu7      1.0000 0.24254  0.74927  0.60299  Biso   1.000  Cu  1.1259861127974136
  Cu8      1.0000 0.25608  0.74948  0.89389  Biso   1.000  Cu  1.1259861127974136
  C13      1.0000 0.29063  0.70712  0.70712  Biso   1.000  C  0.6635164453763639
  C14      1.0000 0.20802  0.79167  0.78993  Biso   1.000  C  0.6635164453763639
  C15      1.0000 0.29074  0.79169  0.70584  Biso   1.000  C  0.6630276363415930
  C16      1.0000 0.20786  0.70702  0.79100  Biso   1.000  C  0.6775710151048105
  O33      1.0000 0.03153  0.96365  0.08720  Biso   1.000  O  -0.3735371033761802
  O34      1.0000 0.96867  0.02544  0.15077  Biso   1.000  O  -0.3735371033761802
  O35      1.0000 0.96820  0.96378  0.08785  Biso   1.000  O  -0.3735371033761802
  O36      1.0000 0.03162  0.02536  0.15013  Biso   1.000  O  -0.3735371033761802
  O37      1.0000 0.03179  0.03645  0.90751  Biso   1.000  O  -0.3735371033761802
  O38      1.0000 0.96837  0.97484  0.84520  Biso   1.000  O  -0.3735371033761802
  O39      1.0000 0.96844  0.03657  0.90819  Biso   1.000  O  -0.3735371033761802
  O40      1.0000 0.03133  0.97477  0.84461  Biso   1.000  O  -0.3735371033761802
  Cu9      1.0000 0.00002  0.99335  0.14316  Biso   1.000  Cu  1.1259861127974136
  Cu10     1.0000 0.99997  0.00687  0.85218  Biso   1.000  Cu  1.1259861127974136
  C17      1.0000 0.04210  0.95867  0.95532  Biso   1.000  C  0.6635164453763639
  C18      1.0000 0.95789  0.04154  0.04011  Biso   1.000  C  0.6635164453763639
  C19      1.0000 0.95752  0.95881  0.95612  Biso   1.000  C  0.6635164453763639
  C20      1.0000 0.04247  0.04141  0.03926  Biso   1.000  C  0.6635164453763639
  O41      1.0000 0.46861  0.47457  0.34910  Biso   1.000  O  -0.3735371033761802
  O42      1.0000 0.53169  0.53642  0.41322  Biso   1.000  O  -0.3735371033761802
  O43      1.0000 0.53160  0.47476  0.34999  Biso   1.000  O  -0.3735371033761802
  O44      1.0000 0.46838  0.53623  0.41236  Biso   1.000  O  -0.3735371033761802
  O45      1.0000 0.46839  0.52503  0.65487  Biso   1.000  O  -0.3735371033761802
  O46      1.0000 0.53165  0.46357  0.59252  Biso   1.000  O  -0.3735371033761802
  O47      1.0000 0.53138  0.52525  0.65577  Biso   1.000  O  -0.3735371033761802
  O48      1.0000 0.46832  0.46335  0.59159  Biso   1.000  O  -0.3735371033761802
  Cu11     1.0000 0.50008  0.50671  0.35698  Biso   1.000  Cu  1.1259861127974136
  Cu12     1.0000 0.49992  0.49309  0.64787  Biso   1.000  Cu  1.1259861127974136
  C21      1.0000 0.45775  0.45842  0.45961  Biso   1.000  C  0.6635164453763639
  C22      1.0000 0.54225  0.54137  0.54518  Biso   1.000  C  0.6630276363415930
  C23      1.0000 0.54237  0.45870  0.46081  Biso   1.000  C  0.6635164453763639
  C24      1.0000 0.45764  0.54110  0.54403  Biso   1.000  C  0.6635164453763639
  O49      1.0000 0.96856  0.53652  0.09198  Biso   1.000  O  -0.3735371033761802
  O50      1.0000 0.03155  0.47475  0.15361  Biso   1.000  O  -0.3735371033761802
  O51      1.0000 0.03190  0.53643  0.09071  Biso   1.000  O  -0.3735371033761802
  O52      1.0000 0.96859  0.47480  0.15489  Biso   1.000  O  -0.3735371033761802
  O53      1.0000 0.96812  0.46372  0.91227  Biso   1.000  O  -0.3735371033761802
  O54      1.0000 0.03142  0.52534  0.84810  Biso   1.000  O  -0.3735371033761802
  O55      1.0000 0.03145  0.46363  0.91101  Biso   1.000  O  -0.3735371033761802
  O56      1.0000 0.96847  0.52539  0.84940  Biso   1.000  O  -0.3735371033761802
  Cu13     1.0000 0.00017  0.50683  0.14699  Biso   1.000  Cu  1.1259861127974136
  Cu14     1.0000 0.99984  0.49331  0.85600  Biso   1.000  Cu  1.1259861127974136
  C25      1.0000 0.95783  0.54149  0.96036  Biso   1.000  C  0.6630276363415930
  C26      1.0000 0.04219  0.45866  0.04261  Biso   1.000  C  0.6635164453763639
  C27      1.0000 0.04240  0.54140  0.95867  Biso   1.000  C  0.6635164453763639
  C28      1.0000 0.95761  0.45874  0.04429  Biso   1.000  C  0.6635164453763639
  O57      1.0000 0.53159  0.02525  0.34598  Biso   1.000  O  -0.3735371033761802
  O58      1.0000 0.46840  0.96341  0.40822  Biso   1.000  O  -0.3735371033761802
  O59      1.0000 0.46860  0.02508  0.34496  Biso   1.000  O  -0.3735371033761802
  O60      1.0000 0.53173  0.96358  0.40928  Biso   1.000  O  -0.3735371033761802
  O61      1.0000 0.53139  0.97479  0.65178  Biso   1.000  O  -0.3735371033761802
  O62      1.0000 0.46826  0.03627  0.58748  Biso   1.000  O  -0.3735371033761802
  O63      1.0000 0.46841  0.97461  0.65073  Biso   1.000  O  -0.3735371033761802
  O64      1.0000 0.53158  0.03645  0.58851  Biso   1.000  O  -0.3735371033761802
  Cu15     1.0000 0.50010  0.99312  0.35291  Biso   1.000  Cu  1.1259861127974136
  Cu16     1.0000 0.49989  0.00674  0.64382  Biso   1.000  Cu  1.1259861127974136
  C29      1.0000 0.54232  0.04139  0.45685  Biso   1.000  C  0.6635164453763639
  C30      1.0000 0.45767  0.95847  0.53990  Biso   1.000  C  0.6635164453763639
  C31      1.0000 0.45771  0.04115  0.45550  Biso   1.000  C  0.6635164453763639
  C32      1.0000 0.54228  0.95871  0.54128  Biso   1.000  C  0.6635164453763639
  C33      1.0000 0.13880  0.13687  0.13453  Biso   1.000  C  0.1669752521587894
  N1       1.0000 0.14545  0.14760  0.27530  Biso   1.000  N  -0.2010471242286766
  N2       1.0000 0.16790  0.17037  0.29793  Biso   1.000  N  -0.2037729500266039
  C34      1.0000 0.18466  0.18318  0.18067  Biso   1.000  C  0.2333889783806034
  N3       1.0000 0.17805  0.17235  0.03988  Biso   1.000  N  -0.2037729500266039
  N4       1.0000 0.15550  0.14968  0.01721  Biso   1.000  N  -0.2033855881812795
  C35      1.0000 0.11389  0.11193  0.10962  Biso   1.000  C  0.1669752521587894
  N5       1.0000 0.10473  0.10369  0.96825  Biso   1.000  N  -0.2037729500266039
  N6       1.0000 0.08195  0.08122  0.94577  Biso   1.000  N  -0.2037729500266039
  C36      1.0000 0.06763  0.06608  0.06385  Biso   1.000  C  0.1554362547198990
  N7       1.0000 0.07686  0.07425  0.20518  Biso   1.000  N  -0.2010471242286766
  N8       1.0000 0.09952  0.09682  0.22767  Biso   1.000  N  -0.2033855881812795
  C37      1.0000 0.63848  0.63690  0.64107  Biso   1.000  C  0.1669752521587894
  N9       1.0000 0.64614  0.64667  0.78227  Biso   1.000  N  -0.2037729500266039
  N10      1.0000 0.66864  0.66942  0.80468  Biso   1.000  N  -0.2033855881812795
  C38      1.0000 0.68437  0.68313  0.68672  Biso   1.000  C  0.1554362547198990
  N11      1.0000 0.67677  0.67331  0.54555  Biso   1.000  N  -0.2033855881812795
  N12      1.0000 0.65419  0.65065  0.52312  Biso   1.000  N  -0.2033855881812795
  C39      1.0000 0.61355  0.61198  0.61622  Biso   1.000  C  0.1669752521587894
  N13      1.0000 0.60391  0.60425  0.47493  Biso   1.000  N  -0.2033855881812795
  N14      1.0000 0.58117  0.58176  0.45231  Biso   1.000  N  -0.2033855881812795
  C40      1.0000 0.56733  0.56610  0.57016  Biso   1.000  C  0.1554362547198990
  N15      1.0000 0.57702  0.57378  0.71145  Biso   1.000  N  -0.2033855881812795
  N16      1.0000 0.59968  0.59635  0.73409  Biso   1.000  N  -0.2033855881812795
  C41      1.0000 0.86138  0.36323  0.14068  Biso   1.000  C  0.1669752521587894
  N17      1.0000 0.85476  0.35246  0.28141  Biso   1.000  N  -0.2033855881812795
  N18      1.0000 0.83231  0.32967  0.30392  Biso   1.000  N  -0.2035166022183841
  C42      1.0000 0.81554  0.31691  0.18657  Biso   1.000  C  0.2289639924546293
  N19      1.0000 0.82212  0.32779  0.04586  Biso   1.000  N  -0.2037729500266039
  N20      1.0000 0.84467  0.35046  0.02332  Biso   1.000  N  -0.2010471242286766
  C43      1.0000 0.88628  0.38818  0.11568  Biso   1.000  C  0.1669752521587894
  N21      1.0000 0.89537  0.39642  0.97422  Biso   1.000  N  -0.2033855881812795
  N22      1.0000 0.91812  0.41890  0.95148  Biso   1.000  N  -0.2033855881812795
  C44      1.0000 0.93249  0.43406  0.06937  Biso   1.000  C  0.1554362547198990
  N23      1.0000 0.92334  0.42589  0.21083  Biso   1.000  N  -0.2033855881812795
  N24      1.0000 0.90070  0.40330  0.23358  Biso   1.000  N  -0.2033855881812795
  C45      1.0000 0.36137  0.86297  0.63492  Biso   1.000  C  0.1669752521587894
  N25      1.0000 0.34572  0.84911  0.51704  Biso   1.000  N  -0.2033855881812795
  N26      1.0000 0.32313  0.82647  0.53964  Biso   1.000  N  -0.2033855881812795
  C46      1.0000 0.31546  0.81677  0.68092  Biso   1.000  C  0.1554362547198990
  N27      1.0000 0.33114  0.83060  0.79878  Biso   1.000  N  -0.2033855881812795
  N28      1.0000 0.35364  0.85332  0.77620  Biso   1.000  N  -0.2033855881812795
  C47      1.0000 0.38631  0.88788  0.61008  Biso   1.000  C  0.1669752521587894
  N29      1.0000 0.40007  0.90359  0.72803  Biso   1.000  N  -0.2033855881812795
  N30      1.0000 0.42274  0.92615  0.70560  Biso   1.000  N  -0.2033855881812795
  C48      1.0000 0.43256  0.93375  0.56444  Biso   1.000  C  0.1554362547198990
  N31      1.0000 0.41884  0.91802  0.44647  Biso   1.000  N  -0.2033855881812795
  N32      1.0000 0.39608  0.89554  0.46888  Biso   1.000  N  -0.2033855881812795
  C49      1.0000 0.86210  0.63711  0.86586  Biso   1.000  C  0.1669752521587894
  N33      1.0000 0.85443  0.64680  0.72462  Biso   1.000  N  -0.2033855881812795
  N34      1.0000 0.83205  0.66955  0.70212  Biso   1.000  N  -0.2033855881812795
  C50      1.0000 0.81644  0.68334  0.82004  Biso   1.000  C  0.1554362547198990
  N35      1.0000 0.82405  0.67361  0.96127  Biso   1.000  N  -0.2033855881812795
  N36      1.0000 0.84652  0.65095  0.98379  Biso   1.000  N  -0.2037729500266039
  C51      1.0000 0.88688  0.61216  0.89058  Biso   1.000  C  0.1669752521587894
  N37      1.0000 0.89659  0.60445  0.03175  Biso   1.000  N  -0.2033855881812795
  N38      1.0000 0.91921  0.58193  0.05404  Biso   1.000  N  -0.2037729500266039
  C52      1.0000 0.93285  0.56622  0.93599  Biso   1.000  C  0.1554362547198990
  N39      1.0000 0.92308  0.57388  0.79486  Biso   1.000  N  -0.2033855881812795
  N40      1.0000 0.90055  0.59648  0.77255  Biso   1.000  N  -0.2033855881812795
  C53      1.0000 0.36143  0.13614  0.35917  Biso   1.000  C  0.1669752521587894
  N41      1.0000 0.34572  0.14984  0.47706  Biso   1.000  N  -0.2033855881812795
  N42      1.0000 0.32315  0.17238  0.45454  Biso   1.000  N  -0.2033855881812795
  C54      1.0000 0.31554  0.18214  0.31333  Biso   1.000  C  0.1554362547198990
  N43      1.0000 0.33127  0.16847  0.19542  Biso   1.000  N  -0.2033855881812795
  N44      1.0000 0.35377  0.14584  0.21793  Biso   1.000  N  -0.2033855881812795
  C55      1.0000 0.38637  0.11136  0.38412  Biso   1.000  C  0.1669752521587894
  N45      1.0000 0.40026  0.09578  0.26633  Biso   1.000  N  -0.2033855881812795
  N46      1.0000 0.42293  0.07334  0.28907  Biso   1.000  N  -0.2033855881812795
  C56      1.0000 0.43261  0.06574  0.43041  Biso   1.000  C  0.1556789736888887
  N47      1.0000 0.41876  0.08135  0.54818  Biso   1.000  N  -0.2010471242286766
  N48      1.0000 0.39601  0.10370  0.52546  Biso   1.000  N  -0.2033855881812795
  C57      1.0000 0.13776  0.86301  0.85991  Biso   1.000  C  0.1669654759780940
  N49      1.0000 0.14537  0.85322  0.71873  Biso   1.000  N  -0.2033855881812795
  N50      1.0000 0.16774  0.83046  0.69639  Biso   1.000  N  -0.2033855881812795
  C58      1.0000 0.18340  0.81676  0.81440  Biso   1.000  C  0.1554362547198990
  N51      1.0000 0.17585  0.82660  0.95553  Biso   1.000  N  -0.2010471242286766
  N52      1.0000 0.15339  0.84926  0.97789  Biso   1.000  N  -0.2033855881812795
  C59      1.0000 0.11297  0.88797  0.88466  Biso   1.000  C  0.1669752521587894
  N53      1.0000 0.10338  0.89573  0.02592  Biso   1.000  N  -0.2033855881812795
  N54      1.0000 0.08078  0.91826  0.04842  Biso   1.000  N  -0.2033855881812795
  C60      1.0000 0.06705  0.93392  0.93051  Biso   1.000  C  0.1554362547198990
  N55      1.0000 0.07669  0.92621  0.78925  Biso   1.000  N  -0.2033855881812795
  N56      1.0000 0.09921  0.90360  0.76673  Biso   1.000  N  -0.2033855881812795
  C61      1.0000 0.63877  0.36379  0.36554  Biso   1.000  C  0.1669752521587894
  N57      1.0000 0.64647  0.35418  0.22422  Biso   1.000  N  -0.2033855881812795
  N58      1.0000 0.66897  0.33156  0.20152  Biso   1.000  N  -0.2033855881812795
  C62      1.0000 0.68466  0.31782  0.31931  Biso   1.000  C  0.1556789736888887
  N59      1.0000 0.67702  0.32748  0.46063  Biso   1.000  N  -0.2033855881812795
  N60      1.0000 0.65444  0.35001  0.48335  Biso   1.000  N  -0.2033855881812795
  C63      1.0000 0.61382  0.38856  0.39047  Biso   1.000  C  0.1669752521587894
  N61      1.0000 0.60407  0.39617  0.53170  Biso   1.000  N  -0.2033855881812795
  N62      1.0000 0.58129  0.41851  0.55416  Biso   1.000  N  -0.2033855881812795
  C64      1.0000 0.56751  0.43414  0.43622  Biso   1.000  C  0.1554362547198990
  N63      1.0000 0.57731  0.42659  0.29502  Biso   1.000  N  -0.2033855881812795
  N64      1.0000 0.60001  0.40417  0.27255  Biso   1.000  N  -0.2033855881812795
  C65      1.0000 0.86118  0.86329  0.86227  Biso   1.000  C  0.1677118368077374
  N65      1.0000 0.85451  0.85243  0.72174  Biso   1.000  N  -0.2033855881812795
  N66      1.0000 0.83207  0.82962  0.69966  Biso   1.000  N  -0.2035166022183841
  C66      1.0000 0.81534  0.81692  0.81726  Biso   1.000  C  0.2333889783806034
  N67      1.0000 0.82197  0.82788  0.95780  Biso   1.000  N  -0.2037729500266039
  N68      1.0000 0.84452  0.85058  0.97991  Biso   1.000  N  -0.2033855881812795
  C67      1.0000 0.88609  0.88825  0.88668  Biso   1.000  C  0.1669752521587894
  N69      1.0000 0.89528  0.89657  0.02790  Biso   1.000  N  -0.2033855881812795
  N70      1.0000 0.91806  0.91905  0.05001  Biso   1.000  N  -0.2033855881812795
  C68      1.0000 0.93235  0.93413  0.93173  Biso   1.000  C  0.1554362547198990
  N71      1.0000 0.92310  0.92589  0.79051  Biso   1.000  N  -0.2033855881812795
  N72      1.0000 0.90043  0.90330  0.76838  Biso   1.000  N  -0.2033855881812795
  C69      1.0000 0.36151  0.36296  0.36216  Biso   1.000  C  0.1669752521587894
  N73      1.0000 0.34580  0.34907  0.47975  Biso   1.000  N  -0.2033855881812795
  N74      1.0000 0.32322  0.32644  0.45673  Biso   1.000  N  -0.2033855881812795
  C70      1.0000 0.31562  0.31679  0.31530  Biso   1.000  C  0.1554362547198990
  N75      1.0000 0.33135  0.33065  0.19771  Biso   1.000  N  -0.2033855881812795
  N76      1.0000 0.35385  0.35337  0.22072  Biso   1.000  N  -0.2033855881812795
  C71      1.0000 0.38645  0.38786  0.38756  Biso   1.000  C  0.1669654759780940
  N77      1.0000 0.40032  0.40359  0.26997  Biso   1.000  N  -0.2033855881812795
  N78      1.0000 0.42298  0.42614  0.29298  Biso   1.000  N  -0.2033855881812795
  C72      1.0000 0.43267  0.43370  0.43439  Biso   1.000  C  0.1554362547198990
  N79      1.0000 0.41884  0.41794  0.55198  Biso   1.000  N  -0.2033855881812795
  N80      1.0000 0.39609  0.39547  0.52899  Biso   1.000  N  -0.2033855881812795
  C73      1.0000 0.13860  0.63690  0.86139  Biso   1.000  C  0.1669752521587894
  N81      1.0000 0.15528  0.64978  0.97857  Biso   1.000  N  -0.2033855881812795
  N82      1.0000 0.17783  0.67245  0.95568  Biso   1.000  N  -0.2035166022183841
  C74      1.0000 0.18443  0.68320  0.81479  Biso   1.000  C  0.2333889783806034
  N83      1.0000 0.16768  0.67033  0.69764  Biso   1.000  N  -0.2037729500266039
  N84      1.0000 0.14524  0.64756  0.72050  Biso   1.000  N  -0.2033855881812795
  C75      1.0000 0.11370  0.61196  0.88670  Biso   1.000  C  0.1669752521587894
  N85      1.0000 0.10458  0.60382  0.02823  Biso   1.000  N  -0.2033855881812795
  N86      1.0000 0.08185  0.58134  0.05119  Biso   1.000  N  -0.2033855881812795
  C76      1.0000 0.06752  0.56608  0.93345  Biso   1.000  C  0.1554362547198990
  N87      1.0000 0.07670  0.57416  0.79193  Biso   1.000  N  -0.2033855881812795
  N88      1.0000 0.09933  0.59674  0.76896  Biso   1.000  N  -0.2033855881812795
  C77      1.0000 0.63867  0.13690  0.36290  Biso   1.000  C  0.1669752521587894
  N89      1.0000 0.65431  0.15067  0.48102  Biso   1.000  N  -0.2033855881812795
  N90      1.0000 0.67690  0.17333  0.45882  Biso   1.000  N  -0.2033855881812795
  C78      1.0000 0.68458  0.18313  0.31772  Biso   1.000  C  0.1554362547198990
  N91      1.0000 0.66892  0.16939  0.19960  Biso   1.000  N  -0.2033855881812795
  N92      1.0000 0.64641  0.14664  0.22178  Biso   1.000  N  -0.2033855881812795
  C79      1.0000 0.61371  0.11198  0.38736  Biso   1.000  C  0.1669752521587894
  N93      1.0000 0.59996  0.09633  0.26923  Biso   1.000  N  -0.2033855881812795
  N94      1.0000 0.57728  0.07376  0.29140  Biso   1.000  N  -0.2033855881812795
  C80      1.0000 0.56744  0.06611  0.43248  Biso   1.000  C  0.1556789736888887
  N95      1.0000 0.58116  0.08179  0.55061  Biso   1.000  N  -0.2033855881812795
  N96      1.0000 0.60393  0.10427  0.52846  Biso   1.000  N  -0.2033855881812795
  C81      1.0000 0.13793  0.36301  0.13621  Biso   1.000  C  0.1669752521587894
  N97      1.0000 0.14561  0.35323  0.27731  Biso   1.000  N  -0.2033855881812795
  N98      1.0000 0.16798  0.33046  0.29944  Biso   1.000  N  -0.2033855881812795
  C82      1.0000 0.18358  0.31674  0.18130  Biso   1.000  C  0.1554362547198990
  N99      1.0000 0.17596  0.32657  0.04022  Biso   1.000  N  -0.2033855881812795
  N100     1.0000 0.15350  0.34925  0.01807  Biso   1.000  N  -0.2033855881812795
  C83      1.0000 0.11314  0.38797  0.11182  Biso   1.000  C  0.1669752521587894
  N101     1.0000 0.10341  0.39573  0.97074  Biso   1.000  N  -0.2033855881812795
  N102     1.0000 0.08079  0.41825  0.94866  Biso   1.000  N  -0.2033855881812795
  C84      1.0000 0.06717  0.43392  0.06684  Biso   1.000  C  0.1554362547198990
  N103     1.0000 0.07696  0.42622  0.20790  Biso   1.000  N  -0.2033855881812795
  N104     1.0000 0.09949  0.40362  0.23000  Biso   1.000  N  -0.2033855881812795
  C85      1.0000 0.63855  0.86375  0.63857  Biso   1.000  C  0.1669752521587894
  N105     1.0000 0.65423  0.84993  0.52090  Biso   1.000  N  -0.2033855881812795
  N106     1.0000 0.67680  0.82740  0.54381  Biso   1.000  N  -0.2033855881812795
  C86      1.0000 0.68444  0.81779  0.68520  Biso   1.000  C  0.1554362547198990
  N107     1.0000 0.66875  0.83158  0.80288  Biso   1.000  N  -0.2033855881812795
  N108     1.0000 0.64625  0.85420  0.77999  Biso   1.000  N  -0.2037729500266039
  C87      1.0000 0.61362  0.88852  0.61327  Biso   1.000  C  0.1669752521587894
  N109     1.0000 0.59976  0.90419  0.73088  Biso   1.000  N  -0.2033855881812795
  N110     1.0000 0.57709  0.92662  0.70791  Biso   1.000  N  -0.2033855881812795
  C88      1.0000 0.56738  0.93412  0.56651  Biso   1.000  C  0.1556789736888887
  N111     1.0000 0.58120  0.91843  0.44890  Biso   1.000  N  -0.2033855881812795
  N112     1.0000 0.60395  0.89608  0.47186  Biso   1.000  N  -0.2033855881812795
  C89      1.0000 0.86224  0.13714  0.13705  Biso   1.000  C  0.1669752521587894
  N113     1.0000 0.85465  0.14679  0.27845  Biso   1.000  N  -0.2033855881812795
  N114     1.0000 0.83229  0.16953  0.30136  Biso   1.000  N  -0.2033855881812795
  C90      1.0000 0.81662  0.18336  0.18371  Biso   1.000  C  0.1554362547198990
  N115     1.0000 0.82415  0.17367  0.04233  Biso   1.000  N  -0.2033855881812795
  N116     1.0000 0.84660  0.15101  0.01940  Biso   1.000  N  -0.2033855881812795
  C91      1.0000 0.88701  0.11220  0.11177  Biso   1.000  C  0.1669752521587894
  N117     1.0000 0.89659  0.10453  0.97037  Biso   1.000  N  -0.2033855881812795
  N118     1.0000 0.91919  0.08202  0.94748  Biso   1.000  N  -0.2033855881812795
  C92      1.0000 0.93293  0.06627  0.06516  Biso   1.000  C  0.1556789736888887
  N119     1.0000 0.92330  0.07389  0.20653  Biso   1.000  N  -0.2033855881812795
  N120     1.0000 0.90078  0.09648  0.22944  Biso   1.000  N  -0.2033855881812795
  C93      1.0000 0.36121  0.63606  0.63784  Biso   1.000  C  0.1669752521587894
  N121     1.0000 0.34562  0.64977  0.51965  Biso   1.000  N  -0.2033855881812795
  N122     1.0000 0.32304  0.67233  0.54174  Biso   1.000  N  -0.2033855881812795
  C94      1.0000 0.31532  0.68208  0.68282  Biso   1.000  C  0.1556789736888887
  N123     1.0000 0.33093  0.66840  0.80101  Biso   1.000  N  -0.2033855881812795
  N124     1.0000 0.35343  0.64575  0.77893  Biso   1.000  N  -0.2033855881812795
  C95      1.0000 0.38618  0.61127  0.61344  Biso   1.000  C  0.1669654759780940
  N125     1.0000 0.39993  0.59570  0.73160  Biso   1.000  N  -0.2037729500266039
  N126     1.0000 0.42264  0.57326  0.70946  Biso   1.000  N  -0.2033855881812795
  C96      1.0000 0.43250  0.56568  0.56839  Biso   1.000  C  0.1554362547198990
  N127     1.0000 0.41878  0.58127  0.45025  Biso   1.000  N  -0.2033855881812795
  N128     1.0000 0.39599  0.60362  0.47236  Biso   1.000  N  -0.2033855881812795
