data_image0
_cell_length_a       12.0266
_cell_length_b       12.0266
_cell_length_c       21.9924
_cell_angle_alpha    89.8023
_cell_angle_beta     89.8023
_cell_angle_gamma    89.998

_symmetry_space_group_name_H-M    "P 1"
_symmetry_int_tables_number       1

loop_
  _symmetry_equiv_pos_as_xyz
  'x, y, z'

loop_
  _atom_site_label
  _atom_site_occupancy
  _atom_site_fract_x
  _atom_site_fract_y
  _atom_site_fract_z
  _atom_site_thermal_displace_type
  _atom_site_B_iso_or_equiv
  _atom_site_type_symbol
  _atom_site_charge
  O1       1.0000 0.09097  0.60970  0.05834  Biso   1.000  O  -0.3873383627514976
  O2       1.0000 0.09117  0.39332  0.94030  Biso   1.000  O  -0.3873383627514976
  O3       1.0000 0.09114  0.61028  0.94008  Biso   1.000  O  -0.3873383627514976
  O4       1.0000 0.09098  0.39309  0.05849  Biso   1.000  O  -0.3873383627514976
  O5       1.0000 0.90726  0.39303  0.05873  Biso   1.000  O  -0.3873383627514976
  O6       1.0000 0.90752  0.61035  0.94034  Biso   1.000  O  -0.3873383627514976
  O7       1.0000 0.90746  0.39335  0.94051  Biso   1.000  O  -0.3873383627514976
  O8       1.0000 0.90726  0.60969  0.05863  Biso   1.000  O  -0.3873383627514976
  Cu1      1.0000 0.10951  0.50163  0.99924  Biso   1.000  Cu  1.1017703506447369
  Cu2      1.0000 0.88892  0.50164  0.99954  Biso   1.000  Cu  1.1017703506447369
  C1       1.0000 0.99910  0.64668  0.07846  Biso   1.000  C  0.6492466810844181
  C2       1.0000 0.99936  0.35606  0.92059  Biso   1.000  C  0.6492466810844181
  C3       1.0000 0.99938  0.64783  0.92023  Biso   1.000  C  0.6646161266458619
  C4       1.0000 0.99910  0.35584  0.07859  Biso   1.000  C  0.6487683845090723
  O9       1.0000 0.61028  0.09114  0.44008  Biso   1.000  O  -0.3873383627514976
  O10      1.0000 0.39309  0.09098  0.55849  Biso   1.000  O  -0.3873383627514976
  O11      1.0000 0.60970  0.09097  0.55834  Biso   1.000  O  -0.3873383627514976
  O12      1.0000 0.39332  0.09117  0.44030  Biso   1.000  O  -0.3873383627514976
  O13      1.0000 0.39335  0.90746  0.44051  Biso   1.000  O  -0.3873383627514976
  O14      1.0000 0.60969  0.90726  0.55863  Biso   1.000  O  -0.3873383627514976
  O15      1.0000 0.39303  0.90726  0.55873  Biso   1.000  O  -0.3873383627514976
  O16      1.0000 0.61035  0.90752  0.44034  Biso   1.000  O  -0.3873383627514976
  Cu3      1.0000 0.50163  0.10951  0.49924  Biso   1.000  Cu  1.1017703506447369
  Cu4      1.0000 0.50164  0.88892  0.49954  Biso   1.000  Cu  1.1017703506447369
  C5       1.0000 0.64783  0.99938  0.42023  Biso   1.000  C  0.6646161266458619
  C6       1.0000 0.35584  0.99910  0.57859  Biso   1.000  C  0.6487683845090723
  C7       1.0000 0.64668  0.99910  0.57846  Biso   1.000  C  0.6492466810844181
  C8       1.0000 0.35606  0.99936  0.42059  Biso   1.000  C  0.6492466810844181
  C9       1.0000 0.99923  0.00006  0.25055  Biso   1.000  C  -0.1477434900176175
  C10      1.0000 0.00007  0.99923  0.75055  Biso   1.000  C  -0.1477434900176175
  N1       1.0000 0.09625  0.77684  0.14549  Biso   1.000  N  -0.2084753113700951
  C11      1.0000 0.99909  0.73434  0.12470  Biso   1.000  C  0.1424197148704998
  N2       1.0000 0.90196  0.77660  0.14604  Biso   1.000  N  -0.2084753113700951
  N3       1.0000 0.90200  0.85818  0.18685  Biso   1.000  N  -0.2063327375100620
  C12      1.0000 0.99916  0.89977  0.20860  Biso   1.000  C  0.2740835773169847
  N4       1.0000 0.09627  0.85842  0.18629  Biso   1.000  N  -0.2064139573991862
  N5       1.0000 0.09625  0.22498  0.14570  Biso   1.000  N  -0.2084753113700951
  C13      1.0000 0.99909  0.26758  0.12481  Biso   1.000  C  0.1424197148704998
  N6       1.0000 0.90195  0.22474  0.14596  Biso   1.000  N  -0.2084753113700951
  N7       1.0000 0.90200  0.14254  0.18671  Biso   1.000  N  -0.2063327375100620
  C14      1.0000 0.99915  0.10086  0.20858  Biso   1.000  C  0.2740835773169847
  N8       1.0000 0.09627  0.14279  0.18644  Biso   1.000  N  -0.2064139573991862
  N9       1.0000 0.22498  0.09625  0.64570  Biso   1.000  N  -0.2084753113700951
  C15      1.0000 0.26758  0.99909  0.62481  Biso   1.000  C  0.1424197148704998
  N10      1.0000 0.22474  0.90195  0.64596  Biso   1.000  N  -0.2084753113700951
  N11      1.0000 0.14254  0.90200  0.68671  Biso   1.000  N  -0.2063327375100620
  C16      1.0000 0.10086  0.99915  0.70858  Biso   1.000  C  0.2740835773169847
  N12      1.0000 0.14279  0.09627  0.68644  Biso   1.000  N  -0.2064139573991862
  N13      1.0000 0.77660  0.90196  0.64604  Biso   1.000  N  -0.2084753113700951
  C17      1.0000 0.73434  0.99909  0.62470  Biso   1.000  C  0.1424197148704998
  N14      1.0000 0.77684  0.09625  0.64549  Biso   1.000  N  -0.2084753113700951
  N15      1.0000 0.85842  0.09627  0.68629  Biso   1.000  N  -0.2064139573991862
  C18      1.0000 0.89977  0.99916  0.70860  Biso   1.000  C  0.2740835773169847
  N16      1.0000 0.85818  0.90200  0.68685  Biso   1.000  N  -0.2063327375100620
  N17      1.0000 0.90245  0.77470  0.85554  Biso   1.000  N  -0.2109001757023604
  C19      1.0000 0.99952  0.73182  0.87653  Biso   1.000  C  0.2285712785778104
  N18      1.0000 0.09674  0.77452  0.85529  Biso   1.000  N  -0.2084753113700951
  N19      1.0000 0.09689  0.85673  0.81456  Biso   1.000  N  -0.2064139573991862
  C20      1.0000 0.99985  0.89868  0.79271  Biso   1.000  C  0.2740835773169847
  N20      1.0000 0.90264  0.85693  0.81480  Biso   1.000  N  -0.2063327375100620
  N21      1.0000 0.09674  0.22443  0.85414  Biso   1.000  N  -0.2084753113700951
  C21      1.0000 0.99951  0.26752  0.87484  Biso   1.000  C  0.1424197148704998
  N22      1.0000 0.90245  0.22471  0.85410  Biso   1.000  N  -0.2084753113700951
  N23      1.0000 0.90263  0.14215  0.81388  Biso   1.000  N  -0.2063327375100620
  C22      1.0000 0.99986  0.09999  0.79218  Biso   1.000  C  0.2740835773169847
  N24      1.0000 0.09690  0.14186  0.81393  Biso   1.000  N  -0.2063327375100620
  N25      1.0000 0.77470  0.90245  0.35554  Biso   1.000  N  -0.2109001757023604
  C23      1.0000 0.73182  0.99952  0.37653  Biso   1.000  C  0.2285712785778104
  N26      1.0000 0.77452  0.09674  0.35529  Biso   1.000  N  -0.2084753113700951
  N27      1.0000 0.85673  0.09689  0.31456  Biso   1.000  N  -0.2064139573991862
  C24      1.0000 0.89868  0.99985  0.29271  Biso   1.000  C  0.2740835773169847
  N28      1.0000 0.85693  0.90264  0.31480  Biso   1.000  N  -0.2063327375100620
  N29      1.0000 0.22443  0.09674  0.35414  Biso   1.000  N  -0.2084753113700951
  C25      1.0000 0.26752  0.99951  0.37484  Biso   1.000  C  0.1424197148704998
  N30      1.0000 0.22471  0.90245  0.35410  Biso   1.000  N  -0.2084753113700951
  N31      1.0000 0.14215  0.90263  0.31388  Biso   1.000  N  -0.2063327375100620
  C26      1.0000 0.09999  0.99986  0.29218  Biso   1.000  C  0.2740835773169847
  N32      1.0000 0.14186  0.09690  0.31393  Biso   1.000  N  -0.2063327375100620
