data_image0
_cell_length_a       22.1335
_cell_length_b       28.3631
_cell_length_c       12.3404
_cell_angle_alpha    90.2257
_cell_angle_beta     89.9999
_cell_angle_gamma    90.1241

_symmetry_space_group_name_H-M    "P 1"
_symmetry_int_tables_number       1

loop_
  _symmetry_equiv_pos_as_xyz
  'x, y, z'

loop_
  _atom_site_label
  _atom_site_occupancy
  _atom_site_fract_x
  _atom_site_fract_y
  _atom_site_fract_z
  _atom_site_thermal_displace_type
  _atom_site_B_iso_or_equiv
  _atom_site_type_symbol
  _atom_site_charge
  O1       1.0000 0.22054  0.29489  0.11965  Biso   1.000  O  -0.3894070641267954
  O2       1.0000 0.32457  0.20344  0.21831  Biso   1.000  O  -0.3894070641267954
  O3       1.0000 0.22070  0.20285  0.11978  Biso   1.000  O  -0.3894070641267954
  O4       1.0000 0.32420  0.29535  0.21851  Biso   1.000  O  -0.3894070641267954
  O5       1.0000 0.27735  0.29540  0.37661  Biso   1.000  O  -0.3894070641267954
  O6       1.0000 0.17384  0.20298  0.27777  Biso   1.000  O  -0.3894070641267954
  O7       1.0000 0.27768  0.20353  0.37636  Biso   1.000  O  -0.3894070641267954
  O8       1.0000 0.17371  0.29501  0.27776  Biso   1.000  O  -0.3894070641267954
  Cu1      1.0000 0.27716  0.24911  0.15314  Biso   1.000  Cu  1.0981405963515369
  Cu2      1.0000 0.22091  0.24922  0.34297  Biso   1.000  Cu  1.0981405963515369
  C1       1.0000 0.17972  0.31074  0.18217  Biso   1.000  C  0.6471077544681472
  C2       1.0000 0.31868  0.18782  0.31403  Biso   1.000  C  0.6466310336286585
  C3       1.0000 0.17983  0.18693  0.18211  Biso   1.000  C  0.6608147561865934
  C4       1.0000 0.31818  0.31125  0.31423  Biso   1.000  C  0.6471077544681472
  O9       1.0000 0.82453  0.29548  0.28013  Biso   1.000  O  -0.3894070641267954
  O10      1.0000 0.72104  0.20334  0.37884  Biso   1.000  O  -0.3894070641267954
  O11      1.0000 0.82490  0.20353  0.28032  Biso   1.000  O  -0.3894070641267954
  O12      1.0000 0.72088  0.29531  0.37896  Biso   1.000  O  -0.3894070641267954
  O13      1.0000 0.67404  0.29489  0.22086  Biso   1.000  O  -0.3894070641267954
  O14      1.0000 0.77802  0.20307  0.12225  Biso   1.000  O  -0.3894070641267954
  O15      1.0000 0.67417  0.20291  0.22086  Biso   1.000  O  -0.3894070641267954
  O16      1.0000 0.77770  0.29500  0.12200  Biso   1.000  O  -0.3894070641267954
  Cu3      1.0000 0.77753  0.24944  0.34545  Biso   1.000  Cu  1.0981405963515369
  Cu4      1.0000 0.72127  0.24890  0.15562  Biso   1.000  Cu  1.0981405963515369
  C5       1.0000 0.81849  0.31109  0.18444  Biso   1.000  C  0.6471077544681472
  C6       1.0000 0.68014  0.18722  0.31656  Biso   1.000  C  0.6624265657835542
  C7       1.0000 0.81898  0.18755  0.18463  Biso   1.000  C  0.6471077544681472
  C8       1.0000 0.68003  0.31092  0.31650  Biso   1.000  C  0.6466310336286585
  O17      1.0000 0.72269  0.79671  0.62276  Biso   1.000  O  -0.3894070641267954
  O18      1.0000 0.82579  0.70459  0.72123  Biso   1.000  O  -0.3894070641267954
  O19      1.0000 0.72214  0.70477  0.62239  Biso   1.000  O  -0.3894070641267954
  O20      1.0000 0.82653  0.79657  0.72136  Biso   1.000  O  -0.3894070641267954
  O21      1.0000 0.77968  0.79689  0.87935  Biso   1.000  O  -0.3894070641267954
  O22      1.0000 0.67530  0.70503  0.78050  Biso   1.000  O  -0.3894070641267954
  O23      1.0000 0.77896  0.70492  0.87935  Biso   1.000  O  -0.3894070641267954
  O24      1.0000 0.67581  0.79700  0.78082  Biso   1.000  O  -0.3894070641267954
  Cu5      1.0000 0.77900  0.75065  0.65606  Biso   1.000  Cu  1.0981405963515369
  Cu6      1.0000 0.72274  0.75101  0.84590  Biso   1.000  Cu  1.0981405963515369
  C9       1.0000 0.68188  0.81265  0.68516  Biso   1.000  C  0.6471077544681472
  C10      1.0000 0.81967  0.68889  0.81684  Biso   1.000  C  0.6471077544681472
  C11      1.0000 0.68120  0.68909  0.68479  Biso   1.000  C  0.6471077544681472
  C12      1.0000 0.82072  0.81258  0.81709  Biso   1.000  C  0.6624265657835542
  O25      1.0000 0.22116  0.70495  0.87937  Biso   1.000  O  -0.3894070641267954
  O26      1.0000 0.32500  0.79691  0.78086  Biso   1.000  O  -0.3894070641267954
  O27      1.0000 0.22113  0.79696  0.87937  Biso   1.000  O  -0.3894070641267954
  O28      1.0000 0.32483  0.70498  0.78053  Biso   1.000  O  -0.3894070641267954
  O29      1.0000 0.27798  0.70474  0.62242  Biso   1.000  O  -0.3894070641267954
  O30      1.0000 0.17428  0.79667  0.72137  Biso   1.000  O  -0.3894070641267954
  O31      1.0000 0.27813  0.79664  0.62279  Biso   1.000  O  -0.3894070641267954
  O32      1.0000 0.17434  0.70466  0.72125  Biso   1.000  O  -0.3894070641267954
  Cu7      1.0000 0.27771  0.75100  0.84594  Biso   1.000  Cu  1.0981405963515369
  Cu8      1.0000 0.22146  0.75067  0.65610  Biso   1.000  Cu  1.0981405963515369
  C13      1.0000 0.18036  0.68894  0.81684  Biso   1.000  C  0.6466310336286585
  C14      1.0000 0.31907  0.81254  0.68518  Biso   1.000  C  0.6466310336286585
  C15      1.0000 0.18022  0.81271  0.81707  Biso   1.000  C  0.6608147561865934
  C16      1.0000 0.31883  0.68905  0.68480  Biso   1.000  C  0.6471077544681472
  C17      1.0000 0.03280  0.03893  0.04017  Biso   1.000  C  -0.0280308401512174
  C18      1.0000 0.96886  0.03878  0.04030  Biso   1.000  C  -0.0268548875977832
  C19      1.0000 0.93794  0.99920  0.00002  Biso   1.000  C  -0.0967110053108974
  C20      1.0000 0.96888  0.95975  0.95962  Biso   1.000  C  -0.0284372492852293
  C21      1.0000 0.03282  0.95988  0.95949  Biso   1.000  C  -0.0280308401512174
  C22      1.0000 0.06375  0.99948  0.99976  Biso   1.000  C  -0.0967110053108974
  H1       1.0000 0.11277  0.99959  0.99967  Biso   1.000  H  0.1407307764180917
  H2       1.0000 0.88892  0.99910  0.00011  Biso   1.000  H  0.1407307764180917
  C23      1.0000 0.53160  0.53963  0.54060  Biso   1.000  C  -0.0268548875977832
  C24      1.0000 0.46767  0.53968  0.54034  Biso   1.000  C  -0.0268548875977832
  C25      1.0000 0.43662  0.50023  0.49965  Biso   1.000  C  -0.0967110053108974
  C26      1.0000 0.46747  0.46074  0.45927  Biso   1.000  C  -0.0269246490664324
  C27      1.0000 0.53140  0.46066  0.45968  Biso   1.000  C  -0.0268548875977832
  C28      1.0000 0.56244  0.50012  0.50030  Biso   1.000  C  -0.0967110053108974
  H3       1.0000 0.61146  0.50009  0.50054  Biso   1.000  H  0.1407307764180917
  H4       1.0000 0.38760  0.50026  0.49941  Biso   1.000  H  0.1407307764180917
  C29      1.0000 0.96747  0.46046  0.04033  Biso   1.000  C  -0.0268548875977832
  C30      1.0000 0.03141  0.46037  0.03990  Biso   1.000  C  -0.0280308401512174
  C31      1.0000 0.06246  0.49976  0.99961  Biso   1.000  C  -0.0967110053108974
  C32      1.0000 0.03160  0.53919  0.95965  Biso   1.000  C  -0.0268548875977832
  C33      1.0000 0.96767  0.53924  0.95992  Biso   1.000  C  -0.0268548875977832
  C34      1.0000 0.93662  0.49987  0.00029  Biso   1.000  C  -0.0967110053108974
  H5       1.0000 0.88760  0.49991  0.00054  Biso   1.000  H  0.1407307764180917
  H6       1.0000 0.11148  0.49973  0.99938  Biso   1.000  H  0.1407307764180917
  C35      1.0000 0.46889  0.96129  0.54050  Biso   1.000  C  -0.0268548875977832
  C36      1.0000 0.53282  0.96142  0.54061  Biso   1.000  C  -0.0284372492852293
  C37      1.0000 0.56375  0.00081  0.50004  Biso   1.000  C  -0.0967110053108974
  C38      1.0000 0.53280  0.04007  0.45936  Biso   1.000  C  -0.0284372492852293
  C39      1.0000 0.46887  0.03992  0.45924  Biso   1.000  C  -0.0268548875977832
  C40      1.0000 0.43795  0.00053  0.49982  Biso   1.000  C  -0.0967110053108974
  H7       1.0000 0.38893  0.00042  0.49974  Biso   1.000  H  0.1407307764180917
  H8       1.0000 0.61277  0.00092  0.50011  Biso   1.000  H  0.1407307764180917
  N1       1.0000 0.09851  0.13293  0.21164  Biso   1.000  N  -0.2124303730502614
  C41      1.0000 0.14175  0.15111  0.14569  Biso   1.000  C  0.2276172938438930
  N2       1.0000 0.14818  0.13279  0.04450  Biso   1.000  N  -0.2120265538912565
  N3       1.0000 0.11274  0.09769  0.01063  Biso   1.000  N  -0.2120265538912565
  C42      1.0000 0.06915  0.07983  0.07622  Biso   1.000  C  0.2613237805535791
  N4       1.0000 0.06311  0.09781  0.17766  Biso   1.000  N  -0.2095887388144705
  N5       1.0000 0.64713  0.63335  0.54502  Biso   1.000  N  -0.2095887388144705
  C43      1.0000 0.64078  0.65153  0.64627  Biso   1.000  C  0.1440012382979627
  N6       1.0000 0.59773  0.63332  0.71243  Biso   1.000  N  -0.2120265538912565
  N7       1.0000 0.56223  0.59827  0.67841  Biso   1.000  N  -0.2095887388144705
  C44      1.0000 0.56807  0.58042  0.57678  Biso   1.000  C  0.2613237805535791
  N8       1.0000 0.61160  0.59833  0.51109  Biso   1.000  N  -0.2120265538912565
  N9       1.0000 0.90141  0.36741  0.21234  Biso   1.000  N  -0.2095887388144705
  C45      1.0000 0.85863  0.34872  0.14600  Biso   1.000  C  0.1440012382979627
  N10      1.0000 0.85236  0.36642  0.04461  Biso   1.000  N  -0.2095887388144705
  N11      1.0000 0.88775  0.40143  0.01069  Biso   1.000  N  -0.2120265538912565
  C46      1.0000 0.93103  0.41979  0.07655  Biso   1.000  C  0.2613237805535791
  N12      1.0000 0.93675  0.40244  0.17835  Biso   1.000  N  -0.2095887388144705
  N13      1.0000 0.40266  0.86833  0.71264  Biso   1.000  N  -0.2120265538912565
  C47      1.0000 0.35952  0.84993  0.64659  Biso   1.000  C  0.1440012382979627
  N14      1.0000 0.35323  0.86769  0.54526  Biso   1.000  N  -0.2095887388144705
  N15      1.0000 0.38888  0.90250  0.51117  Biso   1.000  N  -0.2120265538912565
  C48      1.0000 0.43247  0.92060  0.57675  Biso   1.000  C  0.2613237805535791
  N16      1.0000 0.43827  0.90317  0.67846  Biso   1.000  N  -0.2095887388144705
  N17      1.0000 0.85307  0.63329  0.95623  Biso   1.000  N  -0.2095887388144705
  C49      1.0000 0.85957  0.65121  0.85507  Biso   1.000  C  0.1440012382979627
  N18      1.0000 0.90233  0.63265  0.78869  Biso   1.000  N  -0.2120265538912565
  N19      1.0000 0.93743  0.59754  0.82242  Biso   1.000  N  -0.2095887388144705
  C50      1.0000 0.93147  0.57997  0.92398  Biso   1.000  C  0.2613237805535791
  N20      1.0000 0.88821  0.59820  0.98989  Biso   1.000  N  -0.2120265538912565
  N21      1.0000 0.35296  0.13292  0.45411  Biso   1.000  N  -0.2095887388144705
  C51      1.0000 0.35924  0.15067  0.35275  Biso   1.000  C  0.1440012382979627
  N22      1.0000 0.40249  0.13249  0.28683  Biso   1.000  N  -0.2120265538912565
  N23      1.0000 0.43820  0.09786  0.32115  Biso   1.000  N  -0.2095887388144705
  C52      1.0000 0.43239  0.08044  0.42288  Biso   1.000  C  0.2613237805535791
  N24      1.0000 0.38870  0.09832  0.48834  Biso   1.000  N  -0.2120265538912565
  N25      1.0000 0.14840  0.86658  0.95486  Biso   1.000  N  -0.2120265538912565
  C53      1.0000 0.14203  0.84831  0.85359  Biso   1.000  C  0.2276172938438930
  N26      1.0000 0.09873  0.86630  0.78771  Biso   1.000  N  -0.2124303730502614
  N27      1.0000 0.06323  0.90121  0.82182  Biso   1.000  N  -0.2095887388144705
  C54      1.0000 0.06922  0.91916  0.92333  Biso   1.000  C  0.2613237805535791
  N28      1.0000 0.11286  0.90147  0.98885  Biso   1.000  N  -0.2120265538912565
  N29      1.0000 0.64641  0.36692  0.45584  Biso   1.000  N  -0.2095887388144705
  C55      1.0000 0.63984  0.34853  0.35481  Biso   1.000  C  0.1440012382979627
  N30      1.0000 0.59682  0.36662  0.28861  Biso   1.000  N  -0.2120265538912565
  N31      1.0000 0.56156  0.40174  0.32238  Biso   1.000  N  -0.2095887388144705
  C56      1.0000 0.56764  0.41981  0.42379  Biso   1.000  C  0.2613237805535791
  N32      1.0000 0.61112  0.40202  0.48952  Biso   1.000  N  -0.2120265538912565
  N33      1.0000 0.90259  0.86611  0.78783  Biso   1.000  N  -0.2124303730502614
  C57      1.0000 0.85919  0.84811  0.85369  Biso   1.000  C  0.2278182563357120
  N34      1.0000 0.85296  0.86632  0.95501  Biso   1.000  N  -0.2120265538912565
  N35      1.0000 0.88872  0.90119  0.98906  Biso   1.000  N  -0.2120265538912565
  C58      1.0000 0.93244  0.91891  0.92355  Biso   1.000  C  0.2613237805535791
  N36      1.0000 0.93831  0.90100  0.82199  Biso   1.000  N  -0.2095887388144705
  N37      1.0000 0.40130  0.36735  0.28670  Biso   1.000  N  -0.2095887388144705
  C59      1.0000 0.35840  0.34892  0.35286  Biso   1.000  C  0.1440012382979627
  N38      1.0000 0.35214  0.36688  0.45432  Biso   1.000  N  -0.2095887388144705
  N39      1.0000 0.38762  0.40190  0.48848  Biso   1.000  N  -0.2120265538912565
  C60      1.0000 0.43100  0.42001  0.42280  Biso   1.000  C  0.2613237805535791
  N40      1.0000 0.43674  0.40239  0.32093  Biso   1.000  N  -0.2095887388144705
  N41      1.0000 0.14663  0.63331  0.95616  Biso   1.000  N  -0.2095887388144705
  C61      1.0000 0.14025  0.65125  0.85500  Biso   1.000  C  0.1440012382979627
  N42      1.0000 0.09745  0.63266  0.78854  Biso   1.000  N  -0.2120265538912565
  N43      1.0000 0.06219  0.59751  0.82219  Biso   1.000  N  -0.2095887388144705
  C62      1.0000 0.06802  0.57994  0.92375  Biso   1.000  C  0.2613237805535791
  N44      1.0000 0.11132  0.59819  0.98973  Biso   1.000  N  -0.2120265538912565
  N45      1.0000 0.59864  0.13324  0.28734  Biso   1.000  N  -0.2124303730502614
  C63      1.0000 0.64197  0.15162  0.35314  Biso   1.000  C  0.2276172938438930
  N46      1.0000 0.64838  0.13374  0.45442  Biso   1.000  N  -0.2120265538912565
  N47      1.0000 0.61285  0.09886  0.48851  Biso   1.000  N  -0.2120265538912565
  C64      1.0000 0.56917  0.08079  0.42308  Biso   1.000  C  0.2613237805535791
  N48      1.0000 0.56314  0.09834  0.32155  Biso   1.000  N  -0.2095887388144705
  N49      1.0000 0.14622  0.36646  0.04310  Biso   1.000  N  -0.2095887388144705
  C65      1.0000 0.13962  0.34832  0.14403  Biso   1.000  C  0.1516340868931649
  N50      1.0000 0.09669  0.36666  0.21039  Biso   1.000  N  -0.2095887388144705
  N51      1.0000 0.06154  0.40177  0.17687  Biso   1.000  N  -0.2095887388144705
  C66      1.0000 0.06762  0.41958  0.07555  Biso   1.000  C  0.2613237805535791
  N52      1.0000 0.11102  0.40156  0.00966  Biso   1.000  N  -0.2120265538912565
  N53      1.0000 0.64828  0.86803  0.54549  Biso   1.000  N  -0.2095887388144705
  C67      1.0000 0.64172  0.85013  0.64665  Biso   1.000  C  0.1516340868931649
  N54      1.0000 0.59857  0.86842  0.71260  Biso   1.000  N  -0.2095887388144705
  N55      1.0000 0.56317  0.90327  0.67847  Biso   1.000  N  -0.2095887388144705
  C68      1.0000 0.56921  0.92084  0.57692  Biso   1.000  C  0.2613237805535791
  N56      1.0000 0.61285  0.90287  0.51145  Biso   1.000  N  -0.2120265538912565
  N57      1.0000 0.85317  0.13199  0.04480  Biso   1.000  N  -0.2095887388144705
  C69      1.0000 0.85946  0.15016  0.14609  Biso   1.000  C  0.1516340868931649
  N58      1.0000 0.90260  0.13217  0.21218  Biso   1.000  N  -0.2120265538912565
  N59      1.0000 0.93821  0.09732  0.17810  Biso   1.000  N  -0.2095887388144705
  C70      1.0000 0.93242  0.07947  0.07643  Biso   1.000  C  0.2613237805535791
  N60      1.0000 0.88882  0.09716  0.01080  Biso   1.000  N  -0.2120265538912565
  N61      1.0000 0.35257  0.63334  0.54496  Biso   1.000  N  -0.2095887388144705
  C71      1.0000 0.35904  0.65150  0.64622  Biso   1.000  C  0.1440012382979627
  N62      1.0000 0.40204  0.63331  0.71230  Biso   1.000  N  -0.2095887388144705
  N63      1.0000 0.43737  0.59830  0.67820  Biso   1.000  N  -0.2095887388144705
  C72      1.0000 0.43141  0.58046  0.57656  Biso   1.000  C  0.2613237805535791
  N64      1.0000 0.38794  0.59834  0.51094  Biso   1.000  N  -0.2120265538912565
